*****  Star-HSPICE -- 1999.2   (19990612) 15:10:39  07/16/1999  solaris
 Input File: rc.sp
 lic:
 lic: FLEXlm:v6.1  USER:xtan  HOSTNAME:av20027  HOSTID:80a829ab  PID:21885
 lic: Using FLEXlm license file:
 lic: /net/kato/eco/licenses/r-d/license.dat
 lic: Using FLEXlm license file:
 lic: /net/kato/eco/licenses/r-d/license.dat
 lic: Unable to checkout hspice
 lic:
 lic:
 lic: FLEXlm:v6.1  USER:xtan  HOSTNAME:av20027  HOSTID:80a829ab  PID:21885
 lic: Using FLEXlm license file:
 lic: /net/kato/eco/licenses/r-d/license.dat
 lic: Using FLEXlm license file:
 lic: /net/kato/eco/licenses/r-d/license.dat
 lic: Unable to checkout vlsi2000
 lic:
 lic:
 lic: FLEXlm:v6.1  USER:xtan  HOSTNAME:av20027  HOSTID:80a829ab  PID:21885
 lic: Using FLEXlm license file:
 lic: /net/kato/eco/licenses/r-d/license.dat
 lic: Using FLEXlm license file:
 lic: /net/kato/eco/licenses/r-d/license.dat
 lic: Unable to checkout vlsi500
 lic:
 lic:
 lic: FLEXlm:v6.1  USER:xtan  HOSTNAME:av20027  HOSTID:80a829ab  PID:21885
 lic: Using FLEXlm license file:
 lic: /net/kato/eco/licenses/r-d/license.dat
 lic: Using FLEXlm license file:
 lic: /net/kato/eco/licenses/r-d/license.dat
 lic: Unable to checkout hsptest
 lic:
